%chk=naphthalene
# HF/6-31G(d,p) opt freq

naphthalene

0 1
C  -4.84214445   0.15452178   0.00026300
C  -3.46934345   0.15452178   0.00026300
C  -2.74740545   1.37964278   0.00026300
C  -3.46527545   2.60350878   0.00063300
C  -4.88669145   2.57413578   0.00078700
C  -5.55819645   1.37616078   0.00049700
H  -0.77833245   0.45467778   0.00002000
H  -5.40287545  -0.79182422   0.00018300
H  -2.90455445  -0.78980022   0.00003500
C  -1.32567845   1.40918578   0.00000000
C  -2.74252545   3.82823478   0.00074800
H  -5.43393245   3.52859178   0.00086900
H  -6.65783345   1.34979378   0.00059900
C  -1.36966445   3.82830278   0.00047500
C  -0.65365245   2.60641078   0.00001600
H  -3.30698145   4.77277578   0.00100800
H  -0.80897245   4.77463378   0.00029700
H   0.44597555   2.63287578  -0.00016600


