%chk=C:\Users\user\Desktop\gaussian\examples\modeling\menthol_fix_O_position.chk
# opt freq pm6 geom=connectivity

Title Card Required

0 1
 C                  1.17849262   -0.21675931   -0.09336735
 H                  1.79700765   -0.21761527   -0.96648729
 C                  0.48095462   -1.42451031   -0.09336735
 H                  0.79002170   -1.95940370    0.78028396
 C                 -0.91420538   -1.42451031   -0.09336735
 H                 -1.22319061   -1.95895765    0.78058584
 H                 -1.22321951   -1.95992739   -0.96671655
 C                 -1.61158738   -0.21653431   -0.09404935
 H                 -2.22915565   -0.21597844    0.77974074
 C                 -0.91398638    0.99167169   -0.09504535
 H                 -1.22330865    1.52748413    0.77795222
 H                 -1.22223623    1.52596970   -0.96934945
 C                  0.48083862    0.99174969   -0.09456635
 H                  0.78909506    1.52763124    0.77876573
 H                  0.78994402    1.52610052   -0.96853605
 C                  2.06653137   -0.21649293    1.16480080
 H                  2.68417811   -1.09022738    1.16559933
 C                  1.17633221   -0.21598767    2.42144124
 H                  1.79334659   -0.21544418    3.29562255
 H                  0.55843192    0.65756729    2.42046283
 H                  0.55870336   -1.08973512    2.42135827
 C                  2.95581937    1.04079252    1.16517874
 H                  3.83388636    0.85642023    1.74819264
 H                  3.23797951    1.27838705    0.16077120
 H                  2.41347386    1.86113841    1.58683497
 C                 -2.50098963   -0.21762699   -1.35125357
 H                 -3.12167298   -1.08920224   -1.34829197
 H                 -3.11582845    0.65808185   -1.35394527
 H                 -1.88342845   -0.22251979   -2.22503516
 O                  0.89380281   -2.13948562   -1.26095746
 H                  0.89002127   -1.54791440   -2.01701910

 1 2 1.0 3 1.5 13 1.5 16 1.0
 2
 3 4 1.0 5 1.5 30 1.0
 4
 5 6 1.0 7 1.0 8 1.5
 6
 7
 8 9 1.0 10 1.5 26 1.0
 9
 10 11 1.0 12 1.0 13 1.5
 11
 12
 13 14 1.0 15 1.0
 14
 15
 16 17 1.0 18 1.0 22 1.0
 17
 18 19 1.0 20 1.0 21 1.0
 19
 20
 21
 22 23 1.0 24 1.0 25 1.0
 23
 24
 25
 26 27 1.0 28 1.0 29 1.0
 27
 28
 29
 30 31 1.0
 31

